.MODEL ALD1103N NMOS (LEVEL=3 
+TPG=1 TOX=6.00E-8 LD=2.08E-6 WD=4.00E-8 L=10u W=1000u
+U0= 1215 VTO=0.73 THETA=0.222 RS=0.74 RD=0.74 DELTA=2.5 
+NSUB=1.57E16 XJ=1.3E-6 VMAX=4.38E6 ETA=0.913 KAPPA=0.074 NFS=3E11
+CGSO=5.99E-10 CGDO=5.99E-10 CGBO=4.31E-10 PB=0.90 XQC=0.4)
