Version 4
SHEET 1 1344 1408
WIRE -1184 496 -1392 496
WIRE -1056 496 -1184 496
WIRE -800 496 -1056 496
WIRE -416 496 -800 496
WIRE -208 496 -416 496
WIRE -80 496 -208 496
WIRE 608 496 320 496
WIRE 912 496 608 496
WIRE -80 528 -80 496
WIRE -1392 544 -1392 496
WIRE -1056 544 -1056 496
WIRE -800 544 -800 496
WIRE -416 544 -416 496
WIRE -208 576 -208 496
WIRE -944 592 -992 592
WIRE -864 592 -944 592
WIRE -480 592 -864 592
WIRE 320 592 320 496
WIRE 608 592 608 496
WIRE 560 608 384 608
WIRE -80 656 -80 608
WIRE -1056 672 -1056 640
WIRE -944 672 -944 592
WIRE -944 672 -1056 672
WIRE 272 672 192 672
WIRE 912 672 912 576
WIRE -1056 688 -1056 672
WIRE -800 736 -800 640
WIRE -640 736 -800 736
WIRE -416 736 -416 640
WIRE -416 736 -576 736
WIRE -336 736 -416 736
WIRE -208 736 -208 656
WIRE -208 736 -272 736
WIRE -128 736 -208 736
WIRE 320 736 320 688
WIRE 416 736 320 736
WIRE 608 736 608 688
WIRE 608 736 496 736
WIRE 192 752 192 672
WIRE 192 752 80 752
WIRE -208 784 -208 736
WIRE 80 784 80 752
WIRE 192 784 192 752
WIRE 384 784 384 608
WIRE 384 784 192 784
WIRE 464 784 384 784
WIRE -1056 816 -1056 768
WIRE 320 816 320 736
WIRE 608 816 608 736
WIRE -800 832 -800 736
WIRE -704 832 -800 832
WIRE -640 832 -704 832
WIRE -512 832 -560 832
WIRE -416 832 -416 736
WIRE -416 832 -512 832
WIRE 192 832 192 784
WIRE 272 832 192 832
WIRE -800 896 -800 832
WIRE -704 896 -704 832
WIRE -592 896 -704 896
WIRE -416 896 -416 832
WIRE 464 896 464 784
WIRE 560 896 464 896
WIRE -512 912 -512 832
WIRE -512 912 -624 912
WIRE -208 912 -208 864
WIRE -80 912 -80 752
WIRE -80 912 -208 912
WIRE -624 944 -624 912
WIRE -624 944 -736 944
WIRE -592 944 -592 896
WIRE -480 944 -592 944
WIRE -80 944 -80 912
WIRE 80 944 80 864
WIRE 80 944 -80 944
WIRE 320 944 320 912
WIRE 320 944 80 944
WIRE 608 944 608 912
WIRE 608 944 320 944
WIRE -1184 960 -1184 496
WIRE -1056 960 -1184 960
WIRE -800 1040 -800 992
WIRE -640 1040 -800 1040
WIRE -416 1040 -416 992
WIRE -416 1040 -640 1040
WIRE -1056 1056 -1056 1040
WIRE -864 1056 -1056 1056
WIRE -1056 1072 -1056 1056
WIRE -640 1072 -640 1040
WIRE -864 1120 -864 1056
WIRE -864 1120 -992 1120
WIRE -704 1120 -864 1120
WIRE -1392 1200 -1392 624
WIRE -1056 1200 -1056 1168
WIRE -1056 1200 -1392 1200
WIRE -640 1200 -640 1168
WIRE -640 1200 -1056 1200
WIRE -640 1232 -640 1200
FLAG 912 672 0
FLAG -640 1232 0
FLAG -1056 816 0
FLAG -80 944 0
SYMBOL ind -544 816 R90
WINDOW 0 5 56 VBottom 2
WINDOW 3 32 56 VTop 2
SYMATTR InstName L1
SYMATTR Value 1µ
SYMBOL cap -576 720 R90
WINDOW 0 0 32 VBottom 2
WINDOW 3 32 32 VTop 2
SYMATTR InstName C1
SYMATTR Value 2.5µ
SYMBOL npn -480 896 R0
SYMATTR InstName Q1
SYMATTR Value 2N2222
SYMBOL npn -736 896 M0
SYMATTR InstName Q2
SYMATTR Value 2N2222
SYMBOL pnp -864 640 M180
SYMATTR InstName Q3
SYMATTR Value 2N2907
SYMBOL pnp -480 640 M180
SYMATTR InstName Q4
SYMATTR Value 2N2907
SYMBOL npn -704 1072 R0
SYMATTR InstName Q5
SYMATTR Value 2N2222
SYMBOL pnp -992 640 R180
SYMATTR InstName Q6
SYMATTR Value 2N2907
SYMBOL res -1072 672 R0
SYMATTR InstName R1
SYMATTR Value 2k
SYMBOL npn -992 1072 M0
SYMATTR InstName Q7
SYMATTR Value 2N2222
SYMBOL res -1072 944 R0
SYMATTR InstName R2
SYMATTR Value 1k
SYMBOL nmos -128 656 R0
SYMATTR InstName M1
SYMATTR Value BS170
SYMBOL res -96 512 R0
SYMATTR InstName R3
SYMATTR Value 2k
SYMBOL res -224 560 R0
SYMATTR InstName R4
SYMATTR Value 30k
SYMBOL res -224 768 R0
SYMATTR InstName R5
SYMATTR Value 20k
SYMBOL cap -272 720 R90
WINDOW 0 0 32 VBottom 2
WINDOW 3 32 32 VTop 2
SYMATTR InstName C2
SYMATTR Value 3.3n
SYMBOL ind 512 720 R90
WINDOW 0 5 56 VBottom 2
WINDOW 3 32 56 VTop 2
SYMATTR InstName L2
SYMATTR Value 540µ
SYMATTR SpiceLine Rser=10
SYMBOL nmos 272 592 R0
SYMATTR InstName M2
SYMATTR Value IRF8721
SYMBOL nmos 560 816 R0
SYMATTR InstName M3
SYMATTR Value IRF8721
SYMBOL voltage 80 768 R0
WINDOW 123 0 0 Left 0
WINDOW 39 0 0 Left 0
SYMATTR InstName V2
SYMATTR Value PULSE(0 5 0 0 0 5u 10u)
SYMBOL voltage -1392 528 R0
WINDOW 123 0 0 Left 0
WINDOW 39 0 0 Left 0
SYMATTR InstName V1
SYMATTR Value 5
SYMBOL voltage 912 480 R0
WINDOW 123 0 0 Left 0
WINDOW 39 0 0 Left 0
SYMATTR InstName V3
SYMATTR Value 5
SYMBOL pmos 560 688 M180
SYMATTR InstName M4
SYMATTR Value IRF7210
SYMBOL pmos 272 912 M180
SYMATTR InstName M5
SYMATTR Value IRF7210
TEXT -1176 1304 Left 2 !.include BS170.txt
TEXT -1184 1328 Left 2 !.tran 0 2m 0 10u
