Version 4
SHEET 1 960 680
WIRE -304 48 -416 48
WIRE -80 48 -224 48
WIRE 96 48 -80 48
WIRE 288 48 160 48
WIRE 336 48 288 48
WIRE 464 48 400 48
WIRE 608 48 464 48
WIRE -80 80 -80 48
WIRE -416 128 -416 48
WIRE 608 144 608 48
WIRE 288 160 288 48
WIRE 464 160 464 48
WIRE -80 192 -80 160
WIRE 288 304 288 224
WIRE 288 304 208 304
WIRE 464 304 464 224
WIRE 464 304 288 304
WIRE 608 304 608 224
WIRE 608 304 464 304
WIRE -80 320 -80 272
WIRE 288 352 288 304
WIRE -416 432 -416 192
WIRE -80 432 -80 400
WIRE -80 432 -416 432
WIRE 208 432 208 304
WIRE 208 432 -80 432
FLAG 288 352 0
SYMBOL voltage -80 176 R0
WINDOW 123 0 0 Left 0
WINDOW 39 0 0 Left 0
SYMATTR InstName V1
SYMATTR Value SINE(0 1 1200k 0)
SYMBOL cap 160 32 R90
WINDOW 0 0 32 VBottom 2
WINDOW 3 32 32 VTop 2
SYMATTR InstName C1
SYMATTR Value 0.33µ
SYMBOL cap 480 224 R180
WINDOW 0 24 56 Left 2
WINDOW 3 24 8 Left 2
SYMATTR InstName C2
SYMATTR Value 0.33µ
SYMBOL schottky 304 224 R180
WINDOW 0 24 64 Left 2
WINDOW 3 24 0 Left 2
SYMATTR InstName D1
SYMATTR Value 1N5817
SYMATTR Description Diode
SYMATTR Type diode
SYMBOL schottky 336 64 R270
WINDOW 0 32 32 VTop 2
WINDOW 3 0 32 VBottom 2
SYMATTR InstName D2
SYMATTR Value 1N5817
SYMATTR Description Diode
SYMATTR Type diode
SYMBOL res 592 128 R0
SYMATTR InstName R1
SYMATTR Value 200
SYMBOL res -96 64 R0
SYMATTR InstName R2
SYMATTR Value 2
SYMBOL res -208 32 R90
WINDOW 0 0 56 VBottom 2
WINDOW 3 32 56 VTop 2
SYMATTR InstName R3
SYMATTR Value 5k
SYMBOL cap -432 128 R0
SYMATTR InstName C3
SYMATTR Value 5n
SYMBOL voltage -80 304 R0
WINDOW 123 0 0 Left 0
WINDOW 39 0 0 Left 0
SYMATTR InstName V2
SYMATTR Value SINE(0 0.2 2000)
TEXT 736 56 Left 2 !.tran 0 1000u 0 1u
TEXT -432 8 Left 2 ;LPF Rx
