.MODEL P3306M PMOS VTO=-2.875 RS=5.227 RD=7.524 IS=1E-15 KP=.145
+CGSO=28E-12 CGDO=3E-12 CBD=35E-12 PB=1 LAMBDA=6.67E-3